mvpmarch-behavior/feederdata/p1uhs0_1247--p1udt104/Lines_XZ_G3.dss
New Line.l(r:p1udt104-p1udt2)_G3 Units=km Length=0.03402990000000001 bus1=G3_p1udt104-p1udt2x.2 bus2=G3_p1udt2.2 switch=n enabled=y phases=1 Linecode=1P_OH_AL_ACSR_#2_Sparrow_12_47_0_1_1
New Line.l(r:p1udt201-p1udt471)_G3 Units=km Length=0.057382300000000004 bus1=G3_p1udt201-p1udt471xx.2 bus2=G3_p1udt201-p1udt471xxx.2 switch=n enabled=y phases=1 Linecode=1P_UG_AL_#2_15_12_47_0_1_1
New Line.l(r:p1umv10-p1umv5)_G3 Units=km Length=0.276962 bus1=G3_p1umv10-p1umv5x.1.2.3 bus2=G3_p1umv10-p1umv5xx.1.2.3 switch=n enabled=y phases=3 Linecode=3P_UG_AL_4/0_25_12_47_0_3_3
New Line.l(r:p1udt62-p1umv10)_G3 Units=km Length=0.188854 bus1=G3_p1udt62-p1umv10x.1.2.3 bus2=G3_p1udt62-p1umv10xx.1.2.3 switch=n enabled=y phases=3 Linecode=3P_UG_AL_4/0_25_12_47_0_3_3
New Line.l(r:p1udt258-p1udt259)_G3 Units=km Length=0.0389798 bus1=G3_p1udt258-p1udt259x.1.2.3 bus2=G3_p1udt259.1.2.3 switch=n enabled=y phases=3 Linecode=3P_OH_AL_ACSR_4/0_Penguin_12_47_0_3_3
New Line.l(r:p1udt258-p1umv9)_G3 Units=km Length=0.120264 bus1=G3_p1udt258-p1umv9x.1.2.3 bus2=G3_p1udt258.1.2.3 switch=n enabled=y phases=3 Linecode=3P_OH_AL_ACSR_4/0_Penguin_12_47_0_3_3
New Line.l(r:p1udt61-p1umv9)_G3 Units=km Length=0.13748 bus1=G3_p1udt61-p1umv9x.1.2.3 bus2=G3_p1umv9.1.2.3 switch=n enabled=y phases=3 Linecode=3P_OH_AL_ACSR_4/0_Penguin_12_47_0_3_3
New Line.l(r:p1udt61-p1udt62)_G3 Units=km Length=0.343359 bus1=G3_p1udt61-p1udt62x.1.2.3 bus2=G3_p1udt61.1.2.3 switch=n enabled=y phases=3 Linecode=3P_OH_AL_ACSR_4/0_Penguin_12_47_0_3_3
New Line.l(r:p1udt228-p1udt62)_G3 Units=km Length=0.108336 bus1=G3_p1udt228-p1udt62x.1.2.3 bus2=G3_p1udt62.1.2.3 switch=n enabled=y phases=3 Linecode=3P_OH_AL_ACSR_4/0_Penguin_12_47_0_3_3
New Line.l(r:p1udt104-p1udt228)_G3 Units=km Length=0.040401 bus1=G3_p1udt104.1.2.3 bus2=G3_p1udt228.1.2.3 switch=n enabled=y phases=3 Linecode=3P_OH_AL_ACSR_4/0_Penguin_12_47_0_3_3
New Line.l(r:p1udt104-p1uhs0_1247)_G3 Units=km Length=0.144601 bus1=G3_p1udt104-p1uhs0_1247x.1.2.3 bus2=G3_p1udt104-p1uhs0_1247x_b1_1.1.2.3 switch=n enabled=y phases=3 Linecode=3P_OH_AL_ACSR_4/0_Penguin_12_47_0_3_3
New Line.l(r:p1udt175-p1umv5)_G3 Units=km Length=0.0800674 bus1=G3_p1udt175-p1umv5xx.1.2.3 bus2=G3_p1udt175-p1umv5x.1.2.3 switch=n enabled=y phases=3 Linecode=3P_UG_AL_4/0_25_12_47_0_3_3
New Line.l(r:p1udt201-p1udt454)_G3 Units=km Length=0.0656279 bus1=G3_p1udt201-p1udt454x.1.2.3 bus2=G3_p1udt201-p1udt454xx.1.2.3 switch=n enabled=y phases=3 Linecode=3P_UG_AL_4/0_25_12_47_0_3_3
New Line.l(r:p1udt201-p1umv5)_G3 Units=km Length=0.0861489 bus1=G3_p1udt201-p1umv5xx.1.2.3 bus2=G3_p1udt201-p1umv5x.1.2.3 switch=n enabled=y phases=3 Linecode=3P_UG_AL_4/0_25_12_47_0_3_3
New Line.l(r:p1udt1-p1umv9)_G3 Units=km Length=0.0926244 bus1=G3_p1udt1-p1umv9x.1.2.3 bus2=G3_p1udt1.1.2.3 switch=n enabled=y phases=3 Linecode=3P_OH_AL_ACSR_4/0_Penguin_12_47_0_3_3
New Line.padswitch(r:p1udt201-p1udt471)p1u_9171_G3 Units=km Length=0.001 bus1=G3_p1udt201-p1udt471x.2 bus2=G3_p1udt201-p1udt471xx.2 switch=y enabled=y phases=1 Linecode=padswitch_1_1
New Line.padswitch(r:p1udt201-p1udt471)p1u_9172_G3 Units=km Length=0.001 bus1=G3_p1udt201-p1udt471xxx.2 bus2=G3_p1udt471.2 switch=y enabled=y phases=1 Linecode=padswitch_1_1_1
New Line.padswitch(r:p1umv10-p1umv5)p1u_9175_G3 Units=km Length=0.001 bus1=G3_p1umv10.1.2.3 bus2=G3_p1umv10-p1umv5x.1.2.3 switch=y enabled=y phases=3 Linecode=padswitch_3_3
New Line.padswitch(r:p1umv10-p1umv5)p1u_9176_G3 Units=km Length=0.001 bus1=G3_p1umv10-p1umv5xx.1.2.3 bus2=G3_p1umv5.1.2.3 switch=y enabled=y phases=3 Linecode=padswitch_3_3
New Line.padswitch(r:p1udt62-p1umv10)p1u_9177_G3 Units=km Length=0.001 bus1=G3_p1udt62.1.2.3 bus2=G3_p1udt62-p1umv10x.1.2.3 switch=y enabled=y phases=3 Linecode=padswitch_3_3
New Line.padswitch(r:p1udt62-p1umv10)p1u_9178_G3 Units=km Length=0.001 bus1=G3_p1udt62-p1umv10xx.1.2.3 bus2=G3_p1umv10.1.2.3 switch=y enabled=y phases=3 Linecode=padswitch_3_3
New Line.padswitch(r:p1udt175-p1umv5)p1u_9167_G3 Units=km Length=0.001 bus1=G3_p1umv5.1.2.3 bus2=G3_p1udt175-p1umv5xx.1.2.3 switch=y enabled=y phases=3 Linecode=padswitch_3_3
New Line.padswitch(r:p1udt175-p1umv5)p1u_9168_G3 Units=km Length=0.001 bus1=G3_p1udt175-p1umv5x.1.2.3 bus2=G3_p1udt175.1.2.3 switch=y enabled=y phases=3 Linecode=padswitch_3_3
New Line.padswitch(r:p1udt201-p1udt454)p1u_9169_G3 Units=km Length=0.001 bus1=G3_p1udt201.1.2.3 bus2=G3_p1udt201-p1udt454x.1.2.3 switch=y enabled=y phases=3 Linecode=padswitch_3_3
New Line.padswitch(r:p1udt201-p1udt454)p1u_9170_G3 Units=km Length=0.001 bus1=G3_p1udt201-p1udt454xx.1.2.3 bus2=G3_p1udt454.1.2.3 switch=y enabled=y phases=3 Linecode=padswitch_3_2_3
New Line.padswitch(r:p1udt201-p1umv5)p1u_9173_G3 Units=km Length=0.001 bus1=G3_p1umv5.1.2.3 bus2=G3_p1udt201-p1umv5xx.1.2.3 switch=y enabled=y phases=3 Linecode=padswitch_3_3
New Line.padswitch(r:p1udt201-p1umv5)p1u_9174_G3 Units=km Length=0.001 bus1=G3_p1udt201-p1umv5x.1.2.3 bus2=G3_p1udt201.1.2.3 switch=y enabled=y phases=3 Linecode=padswitch_3_3
New Line.fuse(r:p1udt104-p1udt2)p1u_11961_G3 Units=km Length=0.001 bus1=G3_p1udt104.2 bus2=G3_p1udt104-p1udt2x.2 switch=n enabled=y phases=1 Linecode=fuse_1_1
New Line.fuse(r:p1udt201-p1udt471)p1u_11975_G3 Units=km Length=0.001 bus1=G3_p1udt201.2 bus2=G3_p1udt201-p1udt471x.2 switch=n enabled=y phases=1 Linecode=fuse_1_5_1
New Line.goab_disswitch(r:p1udt61-p1umv9)p1u_12229_G3 Units=km Length=0.001 bus1=G3_p1udt61.1.2.3 bus2=G3_p1udt61-p1umv9x.1.2.3 switch=y enabled=y phases=3 Linecode=goab_disswitch_3_3
New Line.goab_disswitch(r:p1udt258-p1umv9)p1u_12235_G3 Units=km Length=0.001 bus1=G3_p1umv9.1.2.3 bus2=G3_p1udt258-p1umv9x.1.2.3 switch=y enabled=y phases=3 Linecode=goab_disswitch_3_6_3
New Line.recloser_disswitch(r:p1udt228-p1udt62)p1u_12237_G3 Units=km Length=0.001 bus1=G3_p1udt228.1.2.3 bus2=G3_p1udt228-p1udt62x.1.2.3 switch=n enabled=y phases=3 Linecode=recloser_3_3
New Line.goab_disswitch(r:p1udt61-p1udt62)p1u_12239_G3 Units=km Length=0.001 bus1=G3_p1udt62.1.2.3 bus2=G3_p1udt61-p1udt62x.1.2.3 switch=y enabled=y phases=3 Linecode=goab_disswitch_3_6_3
New Line.goab_disswitch(r:p1udt1-p1umv9)p1u_12263_G3 Units=km Length=0.001 bus1=G3_p1umv9.1.2.3 bus2=G3_p1udt1-p1umv9x.1.2.3 switch=y enabled=y phases=3 Linecode=goab_disswitch_3_6_3
New Line.goab_disswitch(r:p1udt258-p1udt259)p1u_12272_G3 Units=km Length=0.001 bus1=G3_p1udt258.1.2.3 bus2=G3_p1udt258-p1udt259x.1.2.3 switch=y enabled=y phases=3 Linecode=goab_disswitch_3_6_3
New Line.l(r:p1udt104-p1uhs0_1247)_disconnect_G3 Units=km Length=0.001 bus1=G3_p1udt104-p1uhs0_1247x_b1_1.1.2.3 bus2=G3_p1udt104-p1uhs0_1247x_b2_1.1.2.3 switch=y enabled=y phases=3 Linecode=3P_OH_AL_ACSR_4/0_Penguin_12_47_0_3_3
New Line.l(r:p1udt104-p1uhs0_1247)_cont_G3 Units=km Length=1.3104090000000002 bus1=G3_p1udt104-p1uhs0_1247x_b2_1.1.2.3 bus2=G3_p1udt104.1.2.3 switch=n enabled=y phases=3 Linecode=3P_OH_AL_ACSR_4/0_Penguin_12_47_0_3_3
